examples/test_perturbation_outputs/pert_min_loss/pglib_opf_case57_ieee.m
%% MATPOWER Case Format : Version 2
function mpc = pglib_opf_case57_ieee
mpc.version = '2';

%%-----  Power Flow Data  -----%%
%% system MVA base
mpc.baseMVA = 100.0;
%% bus data
%    bus_i    type    Pd    Qd    Gs    Bs    area    Vm    Va    baseKV    zone    Vmax    Vmin
mpc.bus = [
	1	3	55.00000000000001	17.0	0.0	0.0	1	1.0	0.0	1.0	1	1.06	0.94				
	2	2	3.0	88.0	0.0	0.0	1	1.0	0.0	1.0	1	1.06	0.94				
	3	2	41.0	21.0	0.0	0.0	1	1.0	0.0	1.0	1	1.06	0.94				
	4	1	0.0	0.0	0.0	0.0	1	1.0	0.0	1.0	1	1.06	0.94				
	5	1	13.0	4.0	0.0	0.0	1	1.0	0.0	1.0	1	1.06	0.94				
	6	2	75.0	2.0	0.0	0.0	1	1.0	0.0	1.0	1	1.06	0.94				
	7	1	0.0	0.0	0.0	0.0	1	1.0	0.0	1.0	1	1.06	0.94				
	8	2	150.0	22.0	0.0	0.0	1	1.0	0.0	1.0	1	1.06	0.94				
	9	2	121.0	26.0	0.0	0.0	1	1.0	0.0	1.0	1	1.06	0.94				
	10	1	5.0	2.0	0.0	0.0	1	1.0	0.0	1.0	1	1.06	0.94				
	11	1	0.0	0.0	0.0	0.0	1	1.0	0.0	1.0	1	1.06	0.94				
	12	2	377.0	24.0	0.0	0.0	1	1.0	0.0	1.0	1	1.06	0.94				
	13	1	18.0	2.3	0.0	0.0	1	1.0	0.0	1.0	1	1.06	0.94				
	14	1	10.5	5.3	0.0	0.0	1	1.0	0.0	1.0	1	1.06	0.94				
	15	1	22.0	5.0	0.0	0.0	1	1.0	0.0	1.0	1	1.06	0.94				
	16	1	43.0	3.0	0.0	0.0	1	1.0	0.0	1.0	1	1.06	0.94				
	17	1	42.0	8.0	0.0	0.0	1	1.0	0.0	1.0	1	1.06	0.94				
	18	1	27.200000000000003	9.8	0.0	10.0	1	1.0	0.0	1.0	1	1.06	0.94				
	19	1	3.3000000000000003	0.6	0.0	0.0	1	1.0	0.0	1.0	1	1.06	0.94				
	20	1	2.3	1.0	0.0	0.0	1	1.0	0.0	1.0	1	1.06	0.94				
	21	1	0.0	0.0	0.0	0.0	1	1.0	0.0	1.0	1	1.06	0.94				
	22	1	0.0	0.0	0.0	0.0	1	1.0	0.0	1.0	1	1.06	0.94				
	23	1	6.3	2.1	0.0	0.0	1	1.0	0.0	1.0	1	1.06	0.94				
	24	1	0.0	0.0	0.0	0.0	1	1.0	0.0	1.0	1	1.06	0.94				
	25	1	6.3	3.2	0.0	5.9	1	1.0	0.0	1.0	1	1.06	0.94				
	26	1	0.0	0.0	0.0	0.0	1	1.0	0.0	1.0	1	1.06	0.94				
	27	1	9.3	0.5	0.0	0.0	1	1.0	0.0	1.0	1	1.06	0.94				
	28	1	4.6	2.3	0.0	0.0	1	1.0	0.0	1.0	1	1.06	0.94				
	29	1	17.0	2.6	0.0	0.0	1	1.0	0.0	1.0	1	1.06	0.94				
	30	1	3.6000000000000005	1.8000000000000003	0.0	0.0	1	1.0	0.0	1.0	1	1.06	0.94				
	31	1	5.8	2.9	0.0	0.0	1	1.0	0.0	1.0	1	1.06	0.94				
	32	1	1.6	0.8	0.0	0.0	1	1.0	0.0	1.0	1	1.06	0.94				
	33	1	3.8	1.9	0.0	0.0	1	1.0	0.0	1.0	1	1.06	0.94				
	34	1	0.0	0.0	0.0	0.0	1	1.0	0.0	1.0	1	1.06	0.94				
	35	1	6.0	3.0	0.0	0.0	1	1.0	0.0	1.0	1	1.06	0.94				
	36	1	0.0	0.0	0.0	0.0	1	1.0	0.0	1.0	1	1.06	0.94				
	37	1	0.0	0.0	0.0	0.0	1	1.0	0.0	1.0	1	1.06	0.94				
	38	1	14.000000000000002	7.000000000000001	0.0	0.0	1	1.0	0.0	1.0	1	1.06	0.94				
	39	1	0.0	0.0	0.0	0.0	1	1.0	0.0	1.0	1	1.06	0.94				
	40	1	0.0	0.0	0.0	0.0	1	1.0	0.0	1.0	1	1.06	0.94				
	41	1	6.3	3.0	0.0	0.0	1	1.0	0.0	1.0	1	1.06	0.94				
	42	1	7.1	4.4	0.0	0.0	1	1.0	0.0	1.0	1	1.06	0.94				
	43	1	2.0	1.0	0.0	0.0	1	1.0	0.0	1.0	1	1.06	0.94				
	44	1	12.0	1.8000000000000003	0.0	0.0	1	1.0	0.0	1.0	1	1.06	0.94				
	45	1	0.0	0.0	0.0	0.0	1	1.0	0.0	1.0	1	1.06	0.94				
	46	1	0.0	0.0	0.0	0.0	1	1.0	0.0	1.0	1	1.06	0.94				
	47	1	29.7	11.6	0.0	0.0	1	1.0	0.0	1.0	1	1.06	0.94				
	48	1	0.0	0.0	0.0	0.0	1	1.0	0.0	1.0	1	1.06	0.94				
	49	1	18.0	8.5	0.0	0.0	1	1.0	0.0	1.0	1	1.06	0.94				
	50	1	21.0	10.5	0.0	0.0	1	1.0	0.0	1.0	1	1.06	0.94				
	51	1	18.0	5.3	0.0	0.0	1	1.0	0.0	1.0	1	1.06	0.94				
	52	1	4.9	2.2	0.0	0.0	1	1.0	0.0	1.0	1	1.06	0.94				
	53	1	20.0	10.0	0.0	6.3	1	1.0	0.0	1.0	1	1.06	0.94				
	54	1	4.1	1.4	0.0	0.0	1	1.0	0.0	1.0	1	1.06	0.94				
	55	1	6.800000000000001	3.4000000000000004	0.0	0.0	1	1.0	0.0	1.0	1	1.06	0.94				
	56	1	7.6	2.2	0.0	0.0	1	1.0	0.0	1.0	1	1.06	0.94				
	57	1	6.7	2.0	0.0	0.0	1	1.0	0.0	1.0	1	1.06	0.94				
];

%% generator data
%    bus    Pg    Qg    Qmax    Qmin    Vg    mBase    status    Pmax    Pmin    Pc1    Pc2    Qc1min    Qc1max    Qc2min    Qc2max    ramp_agc    ramp_10    ramp_30    ramp_q    apf
mpc.gen = [
	1	122.50000000000001	0.0	123.0	-123.0	1.0	100.0	1	245.00000000000003	0.0															
	2	0.0	16.5	50.0	-17.0	1.0	100.0	1	0.0	0.0															
	3	30.0	10.0	30.0	-10.0	1.0	100.0	1	60.0	0.0															
	6	0.0	8.5	25.0	-8.0	1.0	100.0	1	0.0	0.0															
	8	579.5	30.0	200.0	-140.0	1.0	100.0	1	1159.0	0.0															
	9	0.0	3.0	9.0	-3.0	1.0	100.0	1	0.0	0.0															
	12	259.5	2.5	155.0	-150.0	1.0	100.0	1	519.0	0.0															
];

%% branch data
%    f_bus    t_bus    r    x    b    rateA    rateB    rateC    ratio    angle    status    angmin    angmax
mpc.branch = [
	1	2	0.008241403528290479	0.02780232044645617	-5.691198531509697e-5	1005.0000000000001	1005.0000000000001	1005.0000000000001	0	0	1	-29.999999999999996	29.999999999999996								
	2	3	0.029723763495219588	0.08478247830985075	-5.699359617181416e-5	326.0	326.0	326.0	0	0	1	-29.999999999999996	29.999999999999996								
	3	4	0.011201110190964208	0.03660362077574649	-0.011838770837241386	767.0	767.0	767.0	0	0	1	-29.999999999999996	29.999999999999996								
	4	5	0.06185840212327571	0.1306449922882592	-5.724539745964999e-5	200.99999999999997	200.99999999999997	200.99999999999997	0	0	1	-29.999999999999996	29.999999999999996								
	4	6	0.042533267942978174	0.14639393510239215	-5.6943131979714694e-5	191.0	191.0	191.0	0	0	1	-29.999999999999996	29.999999999999996								
	6	7	0.02040042204331669	0.10404162520452379	-5.701427341297885e-5	283.0	283.0	283.0	0	0	1	-29.999999999999996	29.999999999999996								
	6	8	0.03629031305784869	0.18520945466091457	-0.1422667192109329	167.0	167.0	167.0	0	0	1	-29.999999999999996	29.999999999999996								
	8	9	0.009732425654203491	0.049644880385150775	-5.693896828625461e-5	570.0	570.0	570.0	0	0	1	-29.999999999999996	29.999999999999996								
	9	10	0.03890866233033886	0.17702306894130948	-5.694727364628444e-5	171.0	171.0	171.0	0	0	1	-29.999999999999996	29.999999999999996								
	9	11	0.026012339425184973	0.08549838712070236	-0.07059583019772403	331.0	331.0	331.0	0	0	1	-29.999999999999996	29.999999999999996								
	9	12	0.06398082227549881	0.29127143266117717	-5.692634249451542e-5	98.0	98.0	98.0	0	0	1	-29.999999999999996	29.999999999999996								
	9	13	0.048919261883667874	0.16069431302825352	-5.7035342762167145e-5	178.0	178.0	178.0	0	0	1	-29.999999999999996	29.999999999999996								
	13	14	0.013196833015977568	0.043389590736121704	-0.09408685796619749	647.0	647.0	647.0	0	0	1	-29.999999999999996	29.999999999999996								
	13	15	0.027054424518032628	0.08739867332972293	-0.03921601143455599	323.0	323.0	323.0	0	0	1	-29.999999999999996	29.999999999999996								
	1	15	0.01768360256753024	0.09040454049760001	-5.693085397972263e-5	317.0	317.0	317.0	0	0	1	-29.999999999999996	29.999999999999996								
	1	16	0.04466468627220865	0.20264897908705495	-5.694697095965227e-5	140.0	140.0	140.0	0	0	1	-29.999999999999996	29.999999999999996								
	1	17	0.02388816889604729	0.10839823716833925	-0.00978220414217341	266.0	266.0	266.0	0	0	1	-29.999999999999996	29.999999999999996								
	3	15	0.016237022357764867	0.053121143410942644	-5.6923663426245394e-5	530.0	530.0	530.0	0	0	1	-29.999999999999996	29.999999999999996								
	4	18	0.023677649678278418	0.5609471045528864	-5.9896773819153513e-5	53.0	53.0	53.0	0.97	0.0	1	-29.999999999999996	29.999999999999996								
	4	18	0.014119592821945321	0.43333106395066817	-5.693613670940125e-5	69.0	69.0	69.0	0.978	0.0	1	-29.999999999999996	29.999999999999996								
	5	6	0.030003911472781288	0.06368381008572023	-5.725326972775823e-5	413.99999999999994	413.99999999999994	413.99999999999994	0	0	1	-29.999999999999996	29.999999999999996								
	7	8	0.013672137088038445	0.07003413664195325	-5.731155750394137e-5	405.0	405.0	405.0	0	0	1	-29.999999999999996	29.999999999999996								
	10	12	0.027656118343431013	0.12599863350180354	-5.7089228302125904e-5	227.99999999999997	227.99999999999997	227.99999999999997	0	0	1	-29.999999999999996	29.999999999999996								
	11	13	0.022509275947745544	0.07388698337400537	-5.701891124693208e-5	384.0	384.0	384.0	0	0	1	-29.999999999999996	29.999999999999996								
	12	13	0.017801582123588615	0.05800488489659499	-5.6966808558660296e-5	484.0	484.0	484.0	0	0	1	-29.999999999999996	29.999999999999996								
	12	16	0.01800826274147962	0.08133734932742288	-5.703924993129244e-5	353.0	353.0	353.0	0	0	1	-29.999999999999996	29.999999999999996								
	12	17	0.03976708427345357	0.1793009593833933	-5.702699290490822e-5	160.0	160.0	160.0	0	0	1	-29.999999999999996	29.999999999999996								
	14	15	0.017093704547883577	0.054679826365411674	-5.695941284495367e-5	512.0	512.0	512.0	0	0	1	-29.999999999999996	29.999999999999996								
	18	19	0.4368287291037931	0.6490755198542143	-5.7099395956270033e-5	36.0	36.0	36.0	0	0	1	-29.999999999999996	29.999999999999996								
	19	20	0.2838437784043306	0.4352911493560188	-0.027296340656328005	56.99999999999999	56.99999999999999	56.99999999999999	0	0	1	-29.999999999999996	29.999999999999996								
	21	20	0.04571088330030623	0.7787572497512061	-5.718717819168249e-5	38.0	38.0	38.0	1.043	0.0	1	-29.999999999999996	29.999999999999996								
	21	22	0.07429173355044995	0.11809961314030175	-5.692616775510512e-5	213.0	213.0	213.0	0	0	1	-29.999999999999996	29.999999999999996								
	22	23	0.009874639919461872	0.01516106324340411	-0.0675514488111991	1617.0000000000002	1617.0000000000002	1617.0000000000002	0	0	1	-29.999999999999996	29.999999999999996								
	23	24	0.1652430104151023	0.2548207328183681	-0.007788671398824083	97.0	97.0	97.0	0	0	1	-29.999999999999996	29.999999999999996								
	24	25	0.10482648424437732	1.1766792586906416	-5.695623084884343e-5	25.0	25.0	25.0	1.0	0.0	1	-29.999999999999996	29.999999999999996								
	24	25	0.11738889684041813	1.2445990665185132	-5.695713161832481e-5	24.0	24.0	24.0	1.0	0.0	1	-29.999999999999996	29.999999999999996								
	24	26	0.00016842092653494904	0.04735157622231759	-5.69623294746227e-5	621.0	621.0	621.0	1.043	0.0	1	-29.999999999999996	29.999999999999996								
	26	27	0.16067704534818628	0.2473662126852459	-0.002550522035512382	97.0	97.0	97.0	0	0	1	-29.999999999999996	29.999999999999996								
	27	28	0.06173174822305811	0.09529546714179352	-5.6937388476465e-5	259.0	259.0	259.0	0	0	1	-29.999999999999996	29.999999999999996								
	28	29	0.041621839563890345	0.05844994134875748	-5.697352769443489e-5	408.0	408.0	408.0	0	0	1	-29.999999999999996	29.999999999999996								
	7	29	0.0003151114014906464	0.06476883419973967	-0.009066120118875797	453.0	453.0	453.0	0.967	0.0	1	-29.999999999999996	29.999999999999996								
	25	30	0.13557197955331385	0.20285332294591116	-5.6920078266632925e-5	121.0	121.0	121.0	0	0	1	-29.999999999999996	29.999999999999996								
	30	31	0.3394283777046848	0.5173450210604585	-5.6924325263970115e-5	50.0	50.0	50.0	0	0	1	-29.999999999999996	29.999999999999996								
	31	32	0.5106001146604141	0.7602164213081188	-0.00426037785586532	33.0	33.0	33.0	0	0	1	-29.999999999999996	29.999999999999996								
	32	33	0.03905530888164005	0.03586711944272812	-5.691794430853258e-5	552.0	552.0	552.0	0	0	1	-29.999999999999996	29.999999999999996								
	34	32	0.06790930980385897	0.9484038921440808	-0.06119623890061409	31.0	31.0	31.0	0.975	0.0	1	-29.999999999999996	29.999999999999996								
	34	35	0.052026736156867856	0.07803971505825544	-5.692069350067756e-5	313.0	313.0	313.0	0	0	1	-29.999999999999996	29.999999999999996								
	35	36	0.04298476262425331	0.0536808905840615	-5.6948246653079415e-5	426.99999999999994	426.99999999999994	426.99999999999994	0	0	1	-29.999999999999996	29.999999999999996								
	36	37	0.02891624376966721	0.036494279588614224	-5.706037903220676e-5	629.0	629.0	629.0	0	0	1	-29.999999999999996	29.999999999999996								
	37	38	0.06494793445093604	0.1006640734668121	-5.6958791188402465e-5	245.00000000000003	245.00000000000003	245.00000000000003	0	0	1	-29.999999999999996	29.999999999999996								
	37	39	0.023859745077064756	0.03783616443500302	-5.691580658411462e-5	655.0	655.0	655.0	0	0	1	-29.999999999999996	29.999999999999996								
	36	40	0.029964903935590263	0.04654548445649226	-5.707767063458526e-5	530.0	530.0	530.0	0	0	1	-29.999999999999996	29.999999999999996								
	22	38	0.01909973817216106	0.029345950904577197	-5.6943614545147084e-5	834.0	834.0	834.0	0	0	1	-29.999999999999996	29.999999999999996								
	11	41	0.03955187782318896	0.724563797614513	-0.04796951532581232	40.0	40.0	40.0	0.955	0.0	1	-29.999999999999996	29.999999999999996								
	41	42	0.20748551304017746	0.35282760832036186	-5.69094746825432e-5	72.0	72.0	72.0	0	0	1	-29.999999999999996	29.999999999999996								
	41	43	0.013311363145962056	0.4207587914895054	-5.698982048410295e-5	72.0	72.0	72.0	0	0	1	-29.999999999999996	29.999999999999996								
	38	44	0.02900674565348226	0.05871611492702841	-5.698080893945991e-5	450.0	450.0	450.0	0	0	1	-29.999999999999996	29.999999999999996								
	15	45	0.0008053736869307953	0.10354395338944501	-5.6984427138226e-5	282.0	282.0	282.0	0.955	0.0	1	-29.999999999999996	29.999999999999996								
	14	46	0.00040399360570711706	0.07333643886611492	-5.693095134540408e-5	400.0	400.0	400.0	0.9	0.0	1	-29.999999999999996	29.999999999999996								
	46	47	0.023001848567874773	0.06800558515524942	-0.1422669318012638	409.0	409.0	409.0	0	0	1	-29.999999999999996	29.999999999999996								
	47	48	0.018177494977799566	0.023271187846765493	-5.696904478811129e-5	993.0	993.0	993.0	0	0	1	-29.999999999999996	29.999999999999996								
	48	49	0.08280074885487335	0.1280728428295515	-0.09643990330474797	191.0	191.0	191.0	0	0	1	-29.999999999999996	29.999999999999996								
	49	50	0.08066345760895542	0.12889954743557544	-5.7539969841525475e-5	195.0	195.0	195.0	0	0	1	-29.999999999999996	29.999999999999996								
	50	51	0.13739879275975475	0.21810980231095162	-5.700369132164616e-5	112.99999999999999	112.99999999999999	112.99999999999999	0	0	1	-29.999999999999996	29.999999999999996								
	10	51	0.00038345051009303473	0.07144758711038043	-0.1000050153604408	412.0	412.0	412.0	0.93	0.0	1	-29.999999999999996	29.999999999999996								
	13	49	0.002762650182058714	0.19175956840785524	-0.04666203827950068	154.0	154.0	154.0	0.895	0.0	1	-29.999999999999996	29.999999999999996								
	29	52	0.14417960535400684	0.1869703478321893	-0.12262039706424356	125.0	125.0	125.0	0	0	1	-29.999999999999996	29.999999999999996								
	52	53	0.07627381854239551	0.09849518671547165	-0.08593902629908684	236.0	236.0	236.0	0	0	1	-29.999999999999996	29.999999999999996								
	53	54	0.18856285514229482	0.2329430731021021	-5.696951406557521e-5	99.0	99.0	99.0	0	0	1	-29.999999999999996	29.999999999999996								
	54	55	0.17202696577341337	0.224965971465594	-0.11052101527587803	103.0	103.0	103.0	0	0	1	-29.999999999999996	29.999999999999996								
	11	43	0.0018240247096301503	0.15582056203386507	-5.692687769570268e-5	192.0	192.0	192.0	0.958	0.0	1	-29.999999999999996	29.999999999999996								
	44	45	0.06188812870505982	0.12318263504917387	-5.69341660496355e-5	212.0	212.0	212.0	0	0	1	-29.999999999999996	29.999999999999996								
	40	56	0.10918241090036761	1.2006800728956382	-5.707780032689711e-5	25.0	25.0	25.0	0.958	0.0	1	-29.999999999999996	29.999999999999996								
	56	41	0.5405096743454662	0.5366552126248478	-0.01949891386632038	38.0	38.0	38.0	0	0	1	-29.999999999999996	29.999999999999996								
	56	42	0.21512608226190208	0.35837800187326274	-5.6962752954876015e-5	72.0	72.0	72.0	0	0	1	-29.999999999999996	29.999999999999996								
	39	57	0.13463637136376658	1.3320273737483568	-5.706493437517876e-5	22.0	22.0	22.0	0.98	0.0	1	-29.999999999999996	29.999999999999996								
	57	56	0.17215733339371353	0.25724762918809774	-5.738762692216215e-5	94.0	94.0	94.0	0	0	1	-29.999999999999996	29.999999999999996								
	38	49	0.11508513507143892	0.1771298993359993	-0.002423391695177181	139.0	139.0	139.0	0	0	1	-29.999999999999996	29.999999999999996								
	38	48	0.031021470327192956	0.047924186106228325	-5.739579376031232e-5	511.00000000000006	511.00000000000006	511.00000000000006	0	0	1	-29.999999999999996	29.999999999999996								
	9	55	0.0010944945988975573	0.12070579471484535	-0.05362789615264047	244.0	244.0	244.0	0.94	0.0	1	-29.999999999999996	29.999999999999996								
];

%%-----  OPF Data  -----%%
%% cost data
%    1    startup    shutdown    n    x1    y1    ...    xn    yn
%    2    startup    shutdown    n    c(n-1)    ...    c0
mpc.gencost = [
	2	0.0	0.0	2	16.960624	0.0
	2	0.0	0.0	2	0.0	0.0
	2	0.0	0.0	2	34.075557	0.0
	2	0.0	0.0	2	0.0	0.0
	2	0.0	0.0	2	30.441037	0.0
	2	0.0	0.0	2	0.0	0.0
	2	0.0	0.0	2	37.188979	0.0
];

